
**** 01/25/22 13:33:17 ********* PSpice 9.2 (Mar 2000) ******** ID# 1 ********

 ** Profile: "SCHEMATIC1-FinalProject-Part4"  [ x:\orcad\capture\finalproject-mmnazari-9931061\finalproject-part4\simulation\finalpro


 ****     CIRCUIT DESCRIPTION


******************************************************************************




** Creating circuit file "finalproject-part4-schematic1-finalproject-part4.sim.cir" 
** WARNING: THIS AUTOMATICALLY GENERATED FILE MAY BE OVERWRITTEN BY SUBSEQUENT SIMULATIONS

*Libraries: 
* Local Libraries :
* From [PSPICE NETLIST] section of C:\Program Files\Orcad\PSpice\PSpice.ini file:
.lib "nom.lib" 

*Analysis directives: 
.DC LIN PARAM C9 10n 500n 1n 
+ LIN V_V14 0.1n 10n 0.1n 
.PROBE V(*) I(*) W(*) D(*) NOISE(*) 
.INC ".\finalproject-part4-SCHEMATIC1.net" 



**** INCLUDING finalproject-part4-SCHEMATIC1.net ****
* source FINALPROJECT-PART4
X_U4         N00568 N00211 N000032 N000033 N00238 LM741
V_V13         0 N000033 15
R_R13         N00211 N00238  10k  
R_R14         0 N00211  27k  
R_R15         N00376 N00568  5k  
R_R16         N00337 N00376  5k  
C_C8         N00376 N00238  470n  
V_V14         N00337 0 DC YES 
--------------------------$
ERROR -- Missing value
+SIN 0 0.01 318m 0 0 0
C_{C9}         0 N00568  100n  
V_V12         N000032 0 15
.PARAM  C9=10n

**** RESUMING finalproject-part4-schematic1-finalproject-part4.sim.cir ****
.END
